models/_new/TwoAreas/PSSE_Files/TwoAreas_Base_Case.raw
0,   100.00, 33, 0, 0, 60.00     / PSS(R)E-33.4    FRI, FEB 26 2021  11:23


     1,'B01         ', 400.0000,2,   1,   1,   1,1.03000,  20.2709,1.10000,0.90000,1.10000,0.90000
     2,'B02         ', 400.0000,2,   1,   1,   1,1.01000,  10.5065,1.10000,0.90000,1.10000,0.90000
     3,'B03         ', 400.0000,3,   1,   1,   1,1.03000,  -6.8000,1.10000,0.90000,1.10000,0.90000
     4,'B04         ', 400.0000,2,   1,   1,   1,1.01000, -16.9922,1.10000,0.90000,1.10000,0.90000
     5,'B05         ', 400.0000,1,   1,   1,   1,1.00645,  13.8077,1.10000,0.90000,1.10000,0.90000
     6,'B06         ', 400.0000,1,   1,   1,   1,0.97812,   3.7229,1.10000,0.90000,1.10000,0.90000
     7,'B07         ', 400.0000,1,   1,   1,   1,0.96101,  -4.6864,1.10000,0.90000,1.10000,0.90000
     8,'B08         ', 400.0000,1,   1,   1,   1,0.94860, -18.5566,1.10000,0.90000,1.10000,0.90000
     9,'B09         ', 400.0000,1,   1,   1,   1,0.97135, -32.1542,1.10000,0.90000,1.10000,0.90000
    10,'B10         ', 400.0000,1,   1,   1,   1,0.98345, -23.7388,1.10000,0.90000,1.10000,0.90000
    11,'B11         ', 400.0000,1,   1,   1,   1,1.00825, -13.4284,1.10000,0.90000,1.10000,0.90000
0 / END OF BUS DATA, BEGIN LOAD DATA
     7,'1 ',1,   1,   1,   967.000,   -84.700,     0.000,     0.000,     0.000,     0.000,   1,1,0
     9,'1 ',1,   1,   1,  1767.000,  -230.200,     0.000,     0.000,     0.000,     0.000,   1,1,0
0 / END OF LOAD DATA, BEGIN FIXED SHUNT DATA
0 / END OF FIXED SHUNT DATA, BEGIN GENERATOR DATA
     1,'1 ',   700.000,   185.035,  9999.000, -9999.000,1.03000,     0,   900.000, 2.50000E-3, 2.50000E-1, 0.00000E+0, 0.00000E+0,1.00000,1,  100.0,  9999.000, -9999.000,   1,1.0000
     2,'1 ',   700.000,   234.624,  9999.000, -9999.000,1.01000,     0,   900.000, 2.50000E-3, 2.50000E-1, 0.00000E+0, 0.00000E+0,1.00000,1,  100.0,  9999.000, -9999.000,   1,1.0000
     3,'1 ',   719.095,   176.040,  9999.000, -9999.000,1.03000,     0,   900.000, 2.50000E-3, 2.50000E-1, 0.00000E+0, 0.00000E+0,1.00000,1,  100.0,  9999.000, -9999.000,   1,1.0000
     4,'1 ',   700.000,   202.114,  9999.000, -9999.000,1.01000,     0,   350.000, 2.50000E-3, 2.50000E-1, 0.00000E+0, 0.00000E+0,1.00000,1,  100.0,  9999.000, -9999.000,   1,1.0000
0 / END OF GENERATOR DATA, BEGIN BRANCH DATA
     1,     5,'1 ', 0.00000E+0, 1.66700E-2,   0.00000,    0.00,    0.00,    0.00,  0.00000,  0.00000,  0.00000,  0.00000,1,1,   0.00,   1,1.0000
     2,     6,'1 ', 0.00000E+0, 1.66700E-2,   0.00000,    0.00,    0.00,    0.00,  0.00000,  0.00000,  0.00000,  0.00000,1,1,   0.00,   1,1.0000
     3,    11,'1 ', 0.00000E+0, 1.66700E-2,   0.00000,    0.00,    0.00,    0.00,  0.00000,  0.00000,  0.00000,  0.00000,1,1,   0.00,   1,1.0000
     4,    10,'1 ', 0.00000E+0, 1.66700E-2,   0.00000,    0.00,    0.00,    0.00,  0.00000,  0.00000,  0.00000,  0.00000,1,1,   0.00,   1,1.0000
     5,     6,'1 ', 2.50000E-3, 2.50000E-2,   0.04375,    0.00,    0.00,    0.00,  0.00000,  0.00000,  0.00000,  0.00000,1,1,   0.00,   1,1.0000
     6,     7,'1 ', 1.00000E-3, 1.00000E-2,   0.01750,    0.00,    0.00,    0.00,  0.00000,  0.00000,  0.00000,  0.00000,1,1,   0.00,   1,1.0000
     7,     8,'1 ', 1.10000E-2, 1.10000E-1,   0.19250,    0.00,    0.00,    0.00,  0.00000,  0.00000,  0.00000,  0.00000,1,1,   0.00,   1,1.0000
     7,     8,'2 ', 1.10000E-2, 1.10000E-1,   0.19250,    0.00,    0.00,    0.00,  0.00000,  0.00000,  0.00000,  0.00000,1,1,   0.00,   1,1.0000
     8,     9,'1 ', 1.10000E-2, 1.10000E-1,   0.19250,    0.00,    0.00,    0.00,  0.00000,  0.00000,  0.00000,  0.00000,1,1,   0.00,   1,1.0000
     8,     9,'2 ', 1.10000E-2, 1.10000E-1,   0.19250,    0.00,    0.00,    0.00,  0.00000,  0.00000,  0.00000,  0.00000,1,1,   0.00,   1,1.0000
     9,    10,'1 ', 1.00000E-3, 1.00000E-2,   0.01750,    0.00,    0.00,    0.00,  0.00000,  0.00000,  0.00000,  0.00000,1,1,   0.00,   1,1.0000
    10,    11,'1 ', 2.50000E-3, 2.50000E-2,   0.04375,    0.00,    0.00,    0.00,  0.00000,  0.00000,  0.00000,  0.00000,1,1,   0.00,   1,1.0000
0 / END OF BRANCH DATA, BEGIN TRANSFORMER DATA
0 / END OF TRANSFORMER DATA, BEGIN AREA DATA
0 / END OF AREA DATA, BEGIN TWO-TERMINAL DC DATA
0 / END OF TWO-TERMINAL DC DATA, BEGIN VSC DC LINE DATA
0 / END OF VSC DC LINE DATA, BEGIN IMPEDANCE CORRECTION DATA
0 / END OF IMPEDANCE CORRECTION DATA, BEGIN MULTI-TERMINAL DC DATA
0 / END OF MULTI-TERMINAL DC DATA, BEGIN MULTI-SECTION LINE DATA
0 / END OF MULTI-SECTION LINE DATA, BEGIN ZONE DATA
0 / END OF ZONE DATA, BEGIN INTER-AREA TRANSFER DATA
0 / END OF INTER-AREA TRANSFER DATA, BEGIN OWNER DATA
0 / END OF OWNER DATA, BEGIN FACTS DEVICE DATA
0 / END OF FACTS DEVICE DATA, BEGIN SWITCHED SHUNT DATA
0 / END OF SWITCHED SHUNT DATA, BEGIN GNE DATA
0 / END OF GNE DATA, BEGIN INDUCTION MACHINE DATA
0 / END OF INDUCTION MACHINE DATA
Q
